*SPEF "ieee 1481-1999"
*DESIGN "heichips25_template"
*DATE "14:32:04 Friday August 08, 2025"
*VENDOR "The OpenROAD Project"
*PROGRAM "OpenROAD"
*VERSION "341650e72dad0dc8571822ff8c5d9c5e365327f7"
*DESIGN_FLOW "NAME_SCOPE LOCAL" "PIN_CAP NONE"
*DIVIDER /
*DELIMITER :
*BUS_DELIMITER []
*T_UNIT 1 NS
*C_UNIT 1 PF
*R_UNIT 1 OHM
*L_UNIT 1 HENRY

*NAME_MAP
*3 clk
*4 ena
*5 rst_n
*6 ui_in[0]
*7 ui_in[1]
*8 ui_in[2]
*9 ui_in[3]
*10 ui_in[4]
*11 ui_in[5]
*12 ui_in[6]
*13 ui_in[7]
*14 uio_in[0]
*15 uio_in[1]
*16 uio_in[2]
*17 uio_in[3]
*18 uio_in[4]
*19 uio_in[5]
*20 uio_in[6]
*21 uio_in[7]
*22 net38
*23 net39
*24 net40
*25 net41
*26 net42
*27 net43
*28 net44
*29 net45
*30 uio_out[0]
*31 uio_out[1]
*32 uio_out[2]
*33 uio_out[3]
*34 net33
*35 net34
*36 net35
*37 net36
*38 uo_out[0]
*39 uo_out[1]
*40 uo_out[2]
*41 uo_out[3]
*42 uo_out[4]
*43 uo_out[5]
*44 uo_out[6]
*45 uo_out[7]
*46 Demo1\.epsk_de1\.bit_out\[0\]
*47 Demo1\.epsk_de1\.bit_out\[1\]
*48 Demo1\.epsk_de1\.bit_out\[2\]
*49 Demo1\.qam16_bits\[0\]
*50 Demo1\.qam16_bits\[1\]
*51 Demo1\.qam16_bits\[2\]
*52 Demo1\.qam16_bits\[3\]
*53 _000_
*54 _001_
*55 _002_
*56 _003_
*57 _004_
*58 _005_
*59 _006_
*60 _007_
*61 _008_
*62 _009_
*63 _010_
*64 _011_
*65 _012_
*66 _013_
*67 _014_
*68 _015_
*69 _016_
*70 _017_
*71 _018_
*72 _019_
*73 _020_
*74 _021_
*75 _022_
*76 _023_
*77 _024_
*78 _025_
*79 _026_
*80 _027_
*81 _028_
*82 _029_
*83 _030_
*84 _031_
*85 _032_
*86 _033_
*87 _034_
*88 _035_
*89 _036_
*90 _037_
*91 _038_
*92 _039_
*93 _040_
*94 _041_
*95 _042_
*96 _043_
*97 _044_
*98 _045_
*99 _046_
*100 _047_
*101 _048_
*102 _049_
*103 _050_
*104 _051_
*105 _052_
*106 _053_
*107 clknet_0_clk
*108 clknet_2_0__leaf_clk
*109 clknet_2_1__leaf_clk
*110 clknet_2_2__leaf_clk
*111 clknet_2_3__leaf_clk
*112 mod1\.bpsk_mod\.i_out\[2\]
*113 mod1\.i_out_8psk\[0\]
*114 mod1\.i_out_8psk\[1\]
*115 mod1\.i_out_8psk\[2\]
*116 mod1\.i_out_qam16\[2\]
*117 mod1\.i_out_qam16\[3\]
*118 mod1\.i_out_qpsk\[1\]
*119 mod1\.i_out_qpsk\[2\]
*120 mod1\.psk8_mod\.q_out\[1\]
*121 mod1\.psk8_mod\.q_out\[2\]
*122 mod1\.q_out_qam16\[2\]
*123 mod1\.q_out_qam16\[3\]
*124 mod1\.q_out_qpsk\[2\]
*125 mod1\.qam16_mod\.i_level\[2\]
*126 mod1\.qam16_mod\.i_level\[3\]
*127 mod1\.qam16_mod\.q_level\[2\]
*128 mod1\.qam16_mod\.q_level\[3\]
*129 net1
*130 net10
*131 net11
*132 net12
*133 net13
*134 net14
*135 net15
*136 net16
*137 net17
*138 net18
*139 net19
*140 net2
*141 net20
*142 net21
*143 net22
*144 net23
*145 net24
*146 net25
*147 net26
*148 net27
*149 net28
*150 net29
*151 net3
*152 net30
*153 net31
*154 net32
*155 net37
*156 net4
*157 net46
*158 net47
*159 net48
*160 net5
*161 net6
*162 net7
*163 net8
*164 net9
*165 FILLER_0_0
*166 FILLER_0_1001
*167 FILLER_0_1008
*168 FILLER_0_1015
*169 FILLER_0_1022
*170 FILLER_0_105
*171 FILLER_0_112
*172 FILLER_0_119
*173 FILLER_0_126
*174 FILLER_0_133
*175 FILLER_0_14
*176 FILLER_0_140
*177 FILLER_0_147
*178 FILLER_0_154
*179 FILLER_0_161
*180 FILLER_0_168
*181 FILLER_0_175
*182 FILLER_0_182
*183 FILLER_0_189
*184 FILLER_0_196
*185 FILLER_0_203
*186 FILLER_0_21
*187 FILLER_0_210
*188 FILLER_0_217
*189 FILLER_0_224
*190 FILLER_0_231
*191 FILLER_0_238
*192 FILLER_0_245
*193 FILLER_0_252
*194 FILLER_0_259
*195 FILLER_0_266
*196 FILLER_0_273
*197 FILLER_0_28
*198 FILLER_0_280
*199 FILLER_0_287
*200 FILLER_0_294
*201 FILLER_0_301
*202 FILLER_0_308
*203 FILLER_0_315
*204 FILLER_0_322
*205 FILLER_0_329
*206 FILLER_0_336
*207 FILLER_0_343
*208 FILLER_0_35
*209 FILLER_0_350
*210 FILLER_0_357
*211 FILLER_0_364
*212 FILLER_0_371
*213 FILLER_0_378
*214 FILLER_0_385
*215 FILLER_0_392
*216 FILLER_0_399
*217 FILLER_0_406
*218 FILLER_0_413
*219 FILLER_0_42
*220 FILLER_0_420
*221 FILLER_0_427
*222 FILLER_0_434
*223 FILLER_0_441
*224 FILLER_0_448
*225 FILLER_0_455
*226 FILLER_0_462
*227 FILLER_0_469
*228 FILLER_0_476
*229 FILLER_0_483
*230 FILLER_0_49
*231 FILLER_0_490
*232 FILLER_0_497
*233 FILLER_0_504
*234 FILLER_0_511
*235 FILLER_0_518
*236 FILLER_0_525
*237 FILLER_0_532
*238 FILLER_0_539
*239 FILLER_0_546
*240 FILLER_0_553
*241 FILLER_0_56
*242 FILLER_0_560
*243 FILLER_0_567
*244 FILLER_0_574
*245 FILLER_0_581
*246 FILLER_0_588
*247 FILLER_0_595
*248 FILLER_0_602
*249 FILLER_0_609
*250 FILLER_0_616
*251 FILLER_0_623
*252 FILLER_0_63
*253 FILLER_0_630
*254 FILLER_0_637
*255 FILLER_0_644
*256 FILLER_0_651
*257 FILLER_0_658
*258 FILLER_0_665
*259 FILLER_0_672
*260 FILLER_0_679
*261 FILLER_0_686
*262 FILLER_0_693
*263 FILLER_0_7
*264 FILLER_0_70
*265 FILLER_0_700
*266 FILLER_0_707
*267 FILLER_0_714
*268 FILLER_0_721
*269 FILLER_0_728
*270 FILLER_0_735
*271 FILLER_0_742
*272 FILLER_0_749
*273 FILLER_0_756
*274 FILLER_0_763
*275 FILLER_0_77
*276 FILLER_0_770
*277 FILLER_0_777
*278 FILLER_0_784
*279 FILLER_0_791
*280 FILLER_0_798
*281 FILLER_0_805
*282 FILLER_0_812
*283 FILLER_0_819
*284 FILLER_0_826
*285 FILLER_0_833
*286 FILLER_0_84
*287 FILLER_0_840
*288 FILLER_0_847
*289 FILLER_0_854
*290 FILLER_0_861
*291 FILLER_0_868
*292 FILLER_0_875
*293 FILLER_0_882
*294 FILLER_0_889
*295 FILLER_0_896
*296 FILLER_0_903
*297 FILLER_0_91
*298 FILLER_0_910
*299 FILLER_0_917
*300 FILLER_0_924
*301 FILLER_0_931
*302 FILLER_0_938
*303 FILLER_0_945
*304 FILLER_0_952
*305 FILLER_0_959
*306 FILLER_0_966
*307 FILLER_0_973
*308 FILLER_0_98
*309 FILLER_0_980
*310 FILLER_0_987
*311 FILLER_0_994
*312 FILLER_10_1005
*313 FILLER_10_1012
*314 FILLER_10_1019
*315 FILLER_10_102
*316 FILLER_10_1026
*317 FILLER_10_1028
*318 FILLER_10_109
*319 FILLER_10_11
*320 FILLER_10_116
*321 FILLER_10_123
*322 FILLER_10_130
*323 FILLER_10_137
*324 FILLER_10_144
*325 FILLER_10_151
*326 FILLER_10_158
*327 FILLER_10_165
*328 FILLER_10_172
*329 FILLER_10_179
*330 FILLER_10_18
*331 FILLER_10_186
*332 FILLER_10_193
*333 FILLER_10_200
*334 FILLER_10_207
*335 FILLER_10_214
*336 FILLER_10_221
*337 FILLER_10_228
*338 FILLER_10_235
*339 FILLER_10_242
*340 FILLER_10_249
*341 FILLER_10_25
*342 FILLER_10_256
*343 FILLER_10_263
*344 FILLER_10_270
*345 FILLER_10_277
*346 FILLER_10_284
*347 FILLER_10_291
*348 FILLER_10_298
*349 FILLER_10_305
*350 FILLER_10_312
*351 FILLER_10_319
*352 FILLER_10_32
*353 FILLER_10_326
*354 FILLER_10_333
*355 FILLER_10_340
*356 FILLER_10_347
*357 FILLER_10_354
*358 FILLER_10_361
*359 FILLER_10_368
*360 FILLER_10_375
*361 FILLER_10_382
*362 FILLER_10_389
*363 FILLER_10_39
*364 FILLER_10_396
*365 FILLER_10_4
*366 FILLER_10_403
*367 FILLER_10_410
*368 FILLER_10_417
*369 FILLER_10_424
*370 FILLER_10_431
*371 FILLER_10_438
*372 FILLER_10_445
*373 FILLER_10_452
*374 FILLER_10_459
*375 FILLER_10_46
*376 FILLER_10_466
*377 FILLER_10_473
*378 FILLER_10_480
*379 FILLER_10_487
*380 FILLER_10_494
*381 FILLER_10_501
*382 FILLER_10_508
*383 FILLER_10_515
*384 FILLER_10_522
*385 FILLER_10_529
*386 FILLER_10_53
*387 FILLER_10_536
*388 FILLER_10_543
*389 FILLER_10_550
*390 FILLER_10_557
*391 FILLER_10_564
*392 FILLER_10_571
*393 FILLER_10_578
*394 FILLER_10_585
*395 FILLER_10_592
*396 FILLER_10_599
*397 FILLER_10_60
*398 FILLER_10_606
*399 FILLER_10_613
*400 FILLER_10_620
*401 FILLER_10_627
*402 FILLER_10_634
*403 FILLER_10_641
*404 FILLER_10_648
*405 FILLER_10_655
*406 FILLER_10_662
*407 FILLER_10_669
*408 FILLER_10_67
*409 FILLER_10_676
*410 FILLER_10_683
*411 FILLER_10_690
*412 FILLER_10_697
*413 FILLER_10_704
*414 FILLER_10_711
*415 FILLER_10_718
*416 FILLER_10_725
*417 FILLER_10_732
*418 FILLER_10_739
*419 FILLER_10_74
*420 FILLER_10_746
*421 FILLER_10_753
*422 FILLER_10_760
*423 FILLER_10_767
*424 FILLER_10_774
*425 FILLER_10_781
*426 FILLER_10_788
*427 FILLER_10_795
*428 FILLER_10_802
*429 FILLER_10_809
*430 FILLER_10_81
*431 FILLER_10_816
*432 FILLER_10_823
*433 FILLER_10_830
*434 FILLER_10_837
*435 FILLER_10_844
*436 FILLER_10_851
*437 FILLER_10_858
*438 FILLER_10_865
*439 FILLER_10_872
*440 FILLER_10_879
*441 FILLER_10_88
*442 FILLER_10_886
*443 FILLER_10_893
*444 FILLER_10_900
*445 FILLER_10_907
*446 FILLER_10_914
*447 FILLER_10_921
*448 FILLER_10_928
*449 FILLER_10_935
*450 FILLER_10_942
*451 FILLER_10_949
*452 FILLER_10_95
*453 FILLER_10_956
*454 FILLER_10_963
*455 FILLER_10_970
*456 FILLER_10_977
*457 FILLER_10_984
*458 FILLER_10_991
*459 FILLER_10_998
*460 FILLER_11_1005
*461 FILLER_11_1012
*462 FILLER_11_1019
*463 FILLER_11_102
*464 FILLER_11_1026
*465 FILLER_11_1028
*466 FILLER_11_109
*467 FILLER_11_11
*468 FILLER_11_116
*469 FILLER_11_123
*470 FILLER_11_130
*471 FILLER_11_137
*472 FILLER_11_144
*473 FILLER_11_151
*474 FILLER_11_158
*475 FILLER_11_165
*476 FILLER_11_172
*477 FILLER_11_179
*478 FILLER_11_18
*479 FILLER_11_186
*480 FILLER_11_193
*481 FILLER_11_200
*482 FILLER_11_207
*483 FILLER_11_214
*484 FILLER_11_221
*485 FILLER_11_228
*486 FILLER_11_235
*487 FILLER_11_242
*488 FILLER_11_249
*489 FILLER_11_25
*490 FILLER_11_256
*491 FILLER_11_263
*492 FILLER_11_270
*493 FILLER_11_277
*494 FILLER_11_284
*495 FILLER_11_291
*496 FILLER_11_298
*497 FILLER_11_305
*498 FILLER_11_312
*499 FILLER_11_319
*500 FILLER_11_32
*501 FILLER_11_326
*502 FILLER_11_333
*503 FILLER_11_340
*504 FILLER_11_347
*505 FILLER_11_354
*506 FILLER_11_361
*507 FILLER_11_368
*508 FILLER_11_375
*509 FILLER_11_382
*510 FILLER_11_389
*511 FILLER_11_39
*512 FILLER_11_396
*513 FILLER_11_4
*514 FILLER_11_403
*515 FILLER_11_410
*516 FILLER_11_417
*517 FILLER_11_424
*518 FILLER_11_431
*519 FILLER_11_438
*520 FILLER_11_445
*521 FILLER_11_452
*522 FILLER_11_459
*523 FILLER_11_46
*524 FILLER_11_466
*525 FILLER_11_473
*526 FILLER_11_480
*527 FILLER_11_487
*528 FILLER_11_494
*529 FILLER_11_501
*530 FILLER_11_508
*531 FILLER_11_515
*532 FILLER_11_522
*533 FILLER_11_529
*534 FILLER_11_53
*535 FILLER_11_536
*536 FILLER_11_543
*537 FILLER_11_550
*538 FILLER_11_557
*539 FILLER_11_564
*540 FILLER_11_571
*541 FILLER_11_578
*542 FILLER_11_585
*543 FILLER_11_592
*544 FILLER_11_599
*545 FILLER_11_60
*546 FILLER_11_606
*547 FILLER_11_613
*548 FILLER_11_620
*549 FILLER_11_627
*550 FILLER_11_634
*551 FILLER_11_641
*552 FILLER_11_648
*553 FILLER_11_655
*554 FILLER_11_662
*555 FILLER_11_669
*556 FILLER_11_67
*557 FILLER_11_676
*558 FILLER_11_683
*559 FILLER_11_690
*560 FILLER_11_697
*561 FILLER_11_704
*562 FILLER_11_711
*563 FILLER_11_718
*564 FILLER_11_725
*565 FILLER_11_732
*566 FILLER_11_739
*567 FILLER_11_74
*568 FILLER_11_746
*569 FILLER_11_753
*570 FILLER_11_760
*571 FILLER_11_767
*572 FILLER_11_774
*573 FILLER_11_781
*574 FILLER_11_788
*575 FILLER_11_795
*576 FILLER_11_802
*577 FILLER_11_809
*578 FILLER_11_81
*579 FILLER_11_816
*580 FILLER_11_823
*581 FILLER_11_830
*582 FILLER_11_837
*583 FILLER_11_844
*584 FILLER_11_851
*585 FILLER_11_858
*586 FILLER_11_865
*587 FILLER_11_872
*588 FILLER_11_879
*589 FILLER_11_88
*590 FILLER_11_886
*591 FILLER_11_893
*592 FILLER_11_900
*593 FILLER_11_907
*594 FILLER_11_914
*595 FILLER_11_921
*596 FILLER_11_928
*597 FILLER_11_935
*598 FILLER_11_942
*599 FILLER_11_949
*600 FILLER_11_95
*601 FILLER_11_956
*602 FILLER_11_963
*603 FILLER_11_970
*604 FILLER_11_977
*605 FILLER_11_984
*606 FILLER_11_991
*607 FILLER_11_998
*608 FILLER_12_1005
*609 FILLER_12_1012
*610 FILLER_12_1019
*611 FILLER_12_102
*612 FILLER_12_1026
*613 FILLER_12_1028
*614 FILLER_12_109
*615 FILLER_12_11
*616 FILLER_12_116
*617 FILLER_12_123
*618 FILLER_12_130
*619 FILLER_12_137
*620 FILLER_12_144
*621 FILLER_12_151
*622 FILLER_12_158
*623 FILLER_12_165
*624 FILLER_12_172
*625 FILLER_12_179
*626 FILLER_12_18
*627 FILLER_12_186
*628 FILLER_12_193
*629 FILLER_12_200
*630 FILLER_12_207
*631 FILLER_12_214
*632 FILLER_12_221
*633 FILLER_12_228
*634 FILLER_12_235
*635 FILLER_12_242
*636 FILLER_12_249
*637 FILLER_12_25
*638 FILLER_12_256
*639 FILLER_12_263
*640 FILLER_12_270
*641 FILLER_12_277
*642 FILLER_12_284
*643 FILLER_12_291
*644 FILLER_12_298
*645 FILLER_12_305
*646 FILLER_12_312
*647 FILLER_12_319
*648 FILLER_12_32
*649 FILLER_12_326
*650 FILLER_12_333
*651 FILLER_12_340
*652 FILLER_12_347
*653 FILLER_12_354
*654 FILLER_12_361
*655 FILLER_12_368
*656 FILLER_12_375
*657 FILLER_12_382
*658 FILLER_12_389
*659 FILLER_12_39
*660 FILLER_12_396
*661 FILLER_12_4
*662 FILLER_12_403
*663 FILLER_12_410
*664 FILLER_12_417
*665 FILLER_12_424
*666 FILLER_12_431
*667 FILLER_12_438
*668 FILLER_12_445
*669 FILLER_12_452
*670 FILLER_12_459
*671 FILLER_12_46
*672 FILLER_12_466
*673 FILLER_12_473
*674 FILLER_12_480
*675 FILLER_12_487
*676 FILLER_12_494
*677 FILLER_12_501
*678 FILLER_12_508
*679 FILLER_12_515
*680 FILLER_12_522
*681 FILLER_12_529
*682 FILLER_12_53
*683 FILLER_12_536
*684 FILLER_12_543
*685 FILLER_12_550
*686 FILLER_12_557
*687 FILLER_12_564
*688 FILLER_12_571
*689 FILLER_12_578
*690 FILLER_12_585
*691 FILLER_12_592
*692 FILLER_12_599
*693 FILLER_12_60
*694 FILLER_12_606
*695 FILLER_12_613
*696 FILLER_12_620
*697 FILLER_12_627
*698 FILLER_12_634
*699 FILLER_12_641
*700 FILLER_12_648
*701 FILLER_12_655
*702 FILLER_12_662
*703 FILLER_12_669
*704 FILLER_12_67
*705 FILLER_12_676
*706 FILLER_12_683
*707 FILLER_12_690
*708 FILLER_12_697
*709 FILLER_12_704
*710 FILLER_12_711
*711 FILLER_12_718
*712 FILLER_12_725
*713 FILLER_12_732
*714 FILLER_12_739
*715 FILLER_12_74
*716 FILLER_12_746
*717 FILLER_12_753
*718 FILLER_12_760
*719 FILLER_12_767
*720 FILLER_12_774
*721 FILLER_12_781
*722 FILLER_12_788
*723 FILLER_12_795
*724 FILLER_12_802
*725 FILLER_12_809
*726 FILLER_12_81
*727 FILLER_12_816
*728 FILLER_12_823
*729 FILLER_12_830
*730 FILLER_12_837
*731 FILLER_12_844
*732 FILLER_12_851
*733 FILLER_12_858
*734 FILLER_12_865
*735 FILLER_12_872
*736 FILLER_12_879
*737 FILLER_12_88
*738 FILLER_12_886
*739 FILLER_12_893
*740 FILLER_12_900
*741 FILLER_12_907
*742 FILLER_12_914
*743 FILLER_12_921
*744 FILLER_12_928
*745 FILLER_12_935
*746 FILLER_12_942
*747 FILLER_12_949
*748 FILLER_12_95
*749 FILLER_12_956
*750 FILLER_12_963
*751 FILLER_12_970
*752 FILLER_12_977
*753 FILLER_12_984
*754 FILLER_12_991
*755 FILLER_12_998
*756 FILLER_13_1005
*757 FILLER_13_1012
*758 FILLER_13_1019
*759 FILLER_13_102
*760 FILLER_13_1026
*761 FILLER_13_1028
*762 FILLER_13_109
*763 FILLER_13_11
*764 FILLER_13_116
*765 FILLER_13_123
*766 FILLER_13_130
*767 FILLER_13_137
*768 FILLER_13_144
*769 FILLER_13_151
*770 FILLER_13_158
*771 FILLER_13_165
*772 FILLER_13_172
*773 FILLER_13_179
*774 FILLER_13_18
*775 FILLER_13_186
*776 FILLER_13_193
*777 FILLER_13_200
*778 FILLER_13_207
*779 FILLER_13_214
*780 FILLER_13_221
*781 FILLER_13_228
*782 FILLER_13_235
*783 FILLER_13_242
*784 FILLER_13_249
*785 FILLER_13_25
*786 FILLER_13_256
*787 FILLER_13_263
*788 FILLER_13_270
*789 FILLER_13_277
*790 FILLER_13_284
*791 FILLER_13_291
*792 FILLER_13_298
*793 FILLER_13_305
*794 FILLER_13_312
*795 FILLER_13_319
*796 FILLER_13_32
*797 FILLER_13_326
*798 FILLER_13_333
*799 FILLER_13_340
*800 FILLER_13_347
*801 FILLER_13_354
*802 FILLER_13_361
*803 FILLER_13_368
*804 FILLER_13_375
*805 FILLER_13_382
*806 FILLER_13_389
*807 FILLER_13_39
*808 FILLER_13_396
*809 FILLER_13_4
*810 FILLER_13_403
*811 FILLER_13_410
*812 FILLER_13_417
*813 FILLER_13_424
*814 FILLER_13_431
*815 FILLER_13_438
*816 FILLER_13_445
*817 FILLER_13_452
*818 FILLER_13_459
*819 FILLER_13_46
*820 FILLER_13_466
*821 FILLER_13_473
*822 FILLER_13_480
*823 FILLER_13_487
*824 FILLER_13_494
*825 FILLER_13_501
*826 FILLER_13_508
*827 FILLER_13_515
*828 FILLER_13_522
*829 FILLER_13_529
*830 FILLER_13_53
*831 FILLER_13_536
*832 FILLER_13_543
*833 FILLER_13_550
*834 FILLER_13_557
*835 FILLER_13_564
*836 FILLER_13_571
*837 FILLER_13_578
*838 FILLER_13_585
*839 FILLER_13_592
*840 FILLER_13_599
*841 FILLER_13_60
*842 FILLER_13_606
*843 FILLER_13_613
*844 FILLER_13_620
*845 FILLER_13_627
*846 FILLER_13_634
*847 FILLER_13_641
*848 FILLER_13_648
*849 FILLER_13_655
*850 FILLER_13_662
*851 FILLER_13_669
*852 FILLER_13_67
*853 FILLER_13_676
*854 FILLER_13_683
*855 FILLER_13_690
*856 FILLER_13_697
*857 FILLER_13_704
*858 FILLER_13_711
*859 FILLER_13_718
*860 FILLER_13_725
*861 FILLER_13_732
*862 FILLER_13_739
*863 FILLER_13_74
*864 FILLER_13_746
*865 FILLER_13_753
*866 FILLER_13_760
*867 FILLER_13_767
*868 FILLER_13_774
*869 FILLER_13_781
*870 FILLER_13_788
*871 FILLER_13_795
*872 FILLER_13_802
*873 FILLER_13_809
*874 FILLER_13_81
*875 FILLER_13_816
*876 FILLER_13_823
*877 FILLER_13_830
*878 FILLER_13_837
*879 FILLER_13_844
*880 FILLER_13_851
*881 FILLER_13_858
*882 FILLER_13_865
*883 FILLER_13_872
*884 FILLER_13_879
*885 FILLER_13_88
*886 FILLER_13_886
*887 FILLER_13_893
*888 FILLER_13_900
*889 FILLER_13_907
*890 FILLER_13_914
*891 FILLER_13_921
*892 FILLER_13_928
*893 FILLER_13_935
*894 FILLER_13_942
*895 FILLER_13_949
*896 FILLER_13_95
*897 FILLER_13_956
*898 FILLER_13_963
*899 FILLER_13_970
*900 FILLER_13_977
*901 FILLER_13_984
*902 FILLER_13_991
*903 FILLER_13_998
*904 FILLER_14_1004
*905 FILLER_14_1011
*906 FILLER_14_1018
*907 FILLER_14_102
*908 FILLER_14_1025
*909 FILLER_14_109
*910 FILLER_14_11
*911 FILLER_14_116
*912 FILLER_14_123
*913 FILLER_14_130
*914 FILLER_14_137
*915 FILLER_14_144
*916 FILLER_14_151
*917 FILLER_14_158
*918 FILLER_14_165
*919 FILLER_14_172
*920 FILLER_14_179
*921 FILLER_14_18
*922 FILLER_14_186
*923 FILLER_14_193
*924 FILLER_14_200
*925 FILLER_14_207
*926 FILLER_14_214
*927 FILLER_14_221
*928 FILLER_14_25
*929 FILLER_14_255
*930 FILLER_14_262
*931 FILLER_14_269
*932 FILLER_14_276
*933 FILLER_14_283
*934 FILLER_14_290
*935 FILLER_14_297
*936 FILLER_14_304
*937 FILLER_14_311
*938 FILLER_14_318
*939 FILLER_14_32
*940 FILLER_14_325
*941 FILLER_14_332
*942 FILLER_14_339
*943 FILLER_14_346
*944 FILLER_14_353
*945 FILLER_14_360
*946 FILLER_14_367
*947 FILLER_14_374
*948 FILLER_14_381
*949 FILLER_14_388
*950 FILLER_14_39
*951 FILLER_14_395
*952 FILLER_14_4
*953 FILLER_14_402
*954 FILLER_14_409
*955 FILLER_14_416
*956 FILLER_14_423
*957 FILLER_14_430
*958 FILLER_14_437
*959 FILLER_14_444
*960 FILLER_14_451
*961 FILLER_14_458
*962 FILLER_14_46
*963 FILLER_14_465
*964 FILLER_14_472
*965 FILLER_14_479
*966 FILLER_14_486
*967 FILLER_14_493
*968 FILLER_14_500
*969 FILLER_14_507
*970 FILLER_14_514
*971 FILLER_14_521
*972 FILLER_14_528
*973 FILLER_14_53
*974 FILLER_14_535
*975 FILLER_14_542
*976 FILLER_14_549
*977 FILLER_14_556
*978 FILLER_14_563
*979 FILLER_14_570
*980 FILLER_14_577
*981 FILLER_14_584
*982 FILLER_14_591
*983 FILLER_14_598
*984 FILLER_14_60
*985 FILLER_14_605
*986 FILLER_14_612
*987 FILLER_14_619
*988 FILLER_14_626
*989 FILLER_14_633
*990 FILLER_14_640
*991 FILLER_14_647
*992 FILLER_14_654
*993 FILLER_14_661
*994 FILLER_14_668
*995 FILLER_14_67
*996 FILLER_14_675
*997 FILLER_14_682
*998 FILLER_14_689
*999 FILLER_14_696
*1000 FILLER_14_703
*1001 FILLER_14_710
*1002 FILLER_14_717
*1003 FILLER_14_724
*1004 FILLER_14_731
*1005 FILLER_14_738
*1006 FILLER_14_74
*1007 FILLER_14_745
*1008 FILLER_14_752
*1009 FILLER_14_759
*1010 FILLER_14_766
*1011 FILLER_14_773
*1012 FILLER_14_780
*1013 FILLER_14_787
*1014 FILLER_14_794
*1015 FILLER_14_801
*1016 FILLER_14_808
*1017 FILLER_14_81
*1018 FILLER_14_815
*1019 FILLER_14_822
*1020 FILLER_14_829
*1021 FILLER_14_836
*1022 FILLER_14_843
*1023 FILLER_14_850
*1024 FILLER_14_857
*1025 FILLER_14_864
*1026 FILLER_14_871
*1027 FILLER_14_878
*1028 FILLER_14_88
*1029 FILLER_14_885
*1030 FILLER_14_892
*1031 FILLER_14_899
*1032 FILLER_14_906
*1033 FILLER_14_913
*1034 FILLER_14_920
*1035 FILLER_14_927
*1036 FILLER_14_934
*1037 FILLER_14_941
*1038 FILLER_14_948
*1039 FILLER_14_95
*1040 FILLER_14_955
*1041 FILLER_14_962
*1042 FILLER_14_969
*1043 FILLER_14_976
*1044 FILLER_14_983
*1045 FILLER_14_990
*1046 FILLER_14_997
*1047 FILLER_15_1001
*1048 FILLER_15_1008
*1049 FILLER_15_1015
*1050 FILLER_15_102
*1051 FILLER_15_1022
*1052 FILLER_15_109
*1053 FILLER_15_11
*1054 FILLER_15_116
*1055 FILLER_15_123
*1056 FILLER_15_130
*1057 FILLER_15_137
*1058 FILLER_15_144
*1059 FILLER_15_151
*1060 FILLER_15_158
*1061 FILLER_15_165
*1062 FILLER_15_172
*1063 FILLER_15_176
*1064 FILLER_15_18
*1065 FILLER_15_205
*1066 FILLER_15_212
*1067 FILLER_15_219
*1068 FILLER_15_226
*1069 FILLER_15_233
*1070 FILLER_15_240
*1071 FILLER_15_247
*1072 FILLER_15_25
*1073 FILLER_15_254
*1074 FILLER_15_261
*1075 FILLER_15_288
*1076 FILLER_15_295
*1077 FILLER_15_302
*1078 FILLER_15_309
*1079 FILLER_15_32
*1080 FILLER_15_343
*1081 FILLER_15_350
*1082 FILLER_15_357
*1083 FILLER_15_364
*1084 FILLER_15_371
*1085 FILLER_15_378
*1086 FILLER_15_385
*1087 FILLER_15_39
*1088 FILLER_15_392
*1089 FILLER_15_399
*1090 FILLER_15_4
*1091 FILLER_15_406
*1092 FILLER_15_413
*1093 FILLER_15_420
*1094 FILLER_15_427
*1095 FILLER_15_434
*1096 FILLER_15_441
*1097 FILLER_15_448
*1098 FILLER_15_455
*1099 FILLER_15_46
*1100 FILLER_15_462
*1101 FILLER_15_469
*1102 FILLER_15_476
*1103 FILLER_15_483
*1104 FILLER_15_490
*1105 FILLER_15_497
*1106 FILLER_15_504
*1107 FILLER_15_511
*1108 FILLER_15_518
*1109 FILLER_15_525
*1110 FILLER_15_53
*1111 FILLER_15_532
*1112 FILLER_15_539
*1113 FILLER_15_546
*1114 FILLER_15_553
*1115 FILLER_15_560
*1116 FILLER_15_567
*1117 FILLER_15_574
*1118 FILLER_15_581
*1119 FILLER_15_588
*1120 FILLER_15_595
*1121 FILLER_15_60
*1122 FILLER_15_602
*1123 FILLER_15_609
*1124 FILLER_15_616
*1125 FILLER_15_623
*1126 FILLER_15_630
*1127 FILLER_15_637
*1128 FILLER_15_644
*1129 FILLER_15_651
*1130 FILLER_15_658
*1131 FILLER_15_665
*1132 FILLER_15_67
*1133 FILLER_15_672
*1134 FILLER_15_679
*1135 FILLER_15_686
*1136 FILLER_15_693
*1137 FILLER_15_700
*1138 FILLER_15_707
*1139 FILLER_15_714
*1140 FILLER_15_721
*1141 FILLER_15_728
*1142 FILLER_15_735
*1143 FILLER_15_74
*1144 FILLER_15_742
*1145 FILLER_15_749
*1146 FILLER_15_756
*1147 FILLER_15_763
*1148 FILLER_15_770
*1149 FILLER_15_777
*1150 FILLER_15_784
*1151 FILLER_15_791
*1152 FILLER_15_798
*1153 FILLER_15_805
*1154 FILLER_15_81
*1155 FILLER_15_812
*1156 FILLER_15_819
*1157 FILLER_15_826
*1158 FILLER_15_833
*1159 FILLER_15_840
*1160 FILLER_15_847
*1161 FILLER_15_854
*1162 FILLER_15_861
*1163 FILLER_15_868
*1164 FILLER_15_875
*1165 FILLER_15_88
*1166 FILLER_15_882
*1167 FILLER_15_889
*1168 FILLER_15_896
*1169 FILLER_15_903
*1170 FILLER_15_910
*1171 FILLER_15_917
*1172 FILLER_15_924
*1173 FILLER_15_931
*1174 FILLER_15_938
*1175 FILLER_15_945
*1176 FILLER_15_95
*1177 FILLER_15_952
*1178 FILLER_15_959
*1179 FILLER_15_966
*1180 FILLER_15_973
*1181 FILLER_15_980
*1182 FILLER_15_987
*1183 FILLER_15_994
*1184 FILLER_16_1000
*1185 FILLER_16_1007
*1186 FILLER_16_1014
*1187 FILLER_16_102
*1188 FILLER_16_1021
*1189 FILLER_16_1028
*1190 FILLER_16_109
*1191 FILLER_16_11
*1192 FILLER_16_116
*1193 FILLER_16_123
*1194 FILLER_16_130
*1195 FILLER_16_137
*1196 FILLER_16_144
*1197 FILLER_16_151
*1198 FILLER_16_158
*1199 FILLER_16_165
*1200 FILLER_16_172
*1201 FILLER_16_179
*1202 FILLER_16_18
*1203 FILLER_16_186
*1204 FILLER_16_193
*1205 FILLER_16_200
*1206 FILLER_16_207
*1207 FILLER_16_214
*1208 FILLER_16_221
*1209 FILLER_16_228
*1210 FILLER_16_235
*1211 FILLER_16_242
*1212 FILLER_16_249
*1213 FILLER_16_25
*1214 FILLER_16_256
*1215 FILLER_16_263
*1216 FILLER_16_270
*1217 FILLER_16_277
*1218 FILLER_16_284
*1219 FILLER_16_291
*1220 FILLER_16_298
*1221 FILLER_16_305
*1222 FILLER_16_312
*1223 FILLER_16_319
*1224 FILLER_16_32
*1225 FILLER_16_326
*1226 FILLER_16_333
*1227 FILLER_16_342
*1228 FILLER_16_349
*1229 FILLER_16_356
*1230 FILLER_16_363
*1231 FILLER_16_370
*1232 FILLER_16_377
*1233 FILLER_16_384
*1234 FILLER_16_39
*1235 FILLER_16_391
*1236 FILLER_16_398
*1237 FILLER_16_4
*1238 FILLER_16_405
*1239 FILLER_16_412
*1240 FILLER_16_419
*1241 FILLER_16_426
*1242 FILLER_16_433
*1243 FILLER_16_440
*1244 FILLER_16_447
*1245 FILLER_16_454
*1246 FILLER_16_46
*1247 FILLER_16_461
*1248 FILLER_16_468
*1249 FILLER_16_475
*1250 FILLER_16_482
*1251 FILLER_16_489
*1252 FILLER_16_496
*1253 FILLER_16_503
*1254 FILLER_16_510
*1255 FILLER_16_517
*1256 FILLER_16_524
*1257 FILLER_16_53
*1258 FILLER_16_531
*1259 FILLER_16_538
*1260 FILLER_16_545
*1261 FILLER_16_552
*1262 FILLER_16_559
*1263 FILLER_16_566
*1264 FILLER_16_573
*1265 FILLER_16_580
*1266 FILLER_16_587
*1267 FILLER_16_594
*1268 FILLER_16_60
*1269 FILLER_16_601
*1270 FILLER_16_608
*1271 FILLER_16_615
*1272 FILLER_16_622
*1273 FILLER_16_629
*1274 FILLER_16_636
*1275 FILLER_16_643
*1276 FILLER_16_650
*1277 FILLER_16_657
*1278 FILLER_16_664
*1279 FILLER_16_67
*1280 FILLER_16_671
*1281 FILLER_16_678
*1282 FILLER_16_685
*1283 FILLER_16_692
*1284 FILLER_16_699
*1285 FILLER_16_706
*1286 FILLER_16_713
*1287 FILLER_16_720
*1288 FILLER_16_727
*1289 FILLER_16_734
*1290 FILLER_16_74
*1291 FILLER_16_741
*1292 FILLER_16_748
*1293 FILLER_16_755
*1294 FILLER_16_762
*1295 FILLER_16_769
*1296 FILLER_16_776
*1297 FILLER_16_783
*1298 FILLER_16_790
*1299 FILLER_16_797
*1300 FILLER_16_804
*1301 FILLER_16_81
*1302 FILLER_16_811
*1303 FILLER_16_818
*1304 FILLER_16_825
*1305 FILLER_16_832
*1306 FILLER_16_839
*1307 FILLER_16_846
*1308 FILLER_16_853
*1309 FILLER_16_860
*1310 FILLER_16_867
*1311 FILLER_16_874
*1312 FILLER_16_88
*1313 FILLER_16_881
*1314 FILLER_16_888
*1315 FILLER_16_895
*1316 FILLER_16_902
*1317 FILLER_16_909
*1318 FILLER_16_916
*1319 FILLER_16_923
*1320 FILLER_16_930
*1321 FILLER_16_937
*1322 FILLER_16_944
*1323 FILLER_16_95
*1324 FILLER_16_951
*1325 FILLER_16_958
*1326 FILLER_16_965
*1327 FILLER_16_972
*1328 FILLER_16_979
*1329 FILLER_16_986
*1330 FILLER_16_993
*1331 FILLER_17_0
*1332 FILLER_17_1001
*1333 FILLER_17_1008
*1334 FILLER_17_1015
*1335 FILLER_17_1022
*1336 FILLER_17_105
*1337 FILLER_17_112
*1338 FILLER_17_119
*1339 FILLER_17_126
*1340 FILLER_17_133
*1341 FILLER_17_14
*1342 FILLER_17_140
*1343 FILLER_17_147
*1344 FILLER_17_154
*1345 FILLER_17_161
*1346 FILLER_17_168
*1347 FILLER_17_175
*1348 FILLER_17_182
*1349 FILLER_17_189
*1350 FILLER_17_196
*1351 FILLER_17_203
*1352 FILLER_17_21
*1353 FILLER_17_210
*1354 FILLER_17_217
*1355 FILLER_17_224
*1356 FILLER_17_231
*1357 FILLER_17_238
*1358 FILLER_17_245
*1359 FILLER_17_252
*1360 FILLER_17_259
*1361 FILLER_17_266
*1362 FILLER_17_273
*1363 FILLER_17_28
*1364 FILLER_17_280
*1365 FILLER_17_287
*1366 FILLER_17_294
*1367 FILLER_17_301
*1368 FILLER_17_308
*1369 FILLER_17_315
*1370 FILLER_17_322
*1371 FILLER_17_329
*1372 FILLER_17_336
*1373 FILLER_17_343
*1374 FILLER_17_35
*1375 FILLER_17_350
*1376 FILLER_17_357
*1377 FILLER_17_364
*1378 FILLER_17_371
*1379 FILLER_17_378
*1380 FILLER_17_385
*1381 FILLER_17_392
*1382 FILLER_17_399
*1383 FILLER_17_406
*1384 FILLER_17_413
*1385 FILLER_17_42
*1386 FILLER_17_420
*1387 FILLER_17_427
*1388 FILLER_17_434
*1389 FILLER_17_441
*1390 FILLER_17_448
*1391 FILLER_17_455
*1392 FILLER_17_462
*1393 FILLER_17_469
*1394 FILLER_17_476
*1395 FILLER_17_483
*1396 FILLER_17_49
*1397 FILLER_17_490
*1398 FILLER_17_497
*1399 FILLER_17_504
*1400 FILLER_17_511
*1401 FILLER_17_518
*1402 FILLER_17_525
*1403 FILLER_17_532
*1404 FILLER_17_539
*1405 FILLER_17_546
*1406 FILLER_17_553
*1407 FILLER_17_56
*1408 FILLER_17_560
*1409 FILLER_17_567
*1410 FILLER_17_574
*1411 FILLER_17_581
*1412 FILLER_17_588
*1413 FILLER_17_595
*1414 FILLER_17_602
*1415 FILLER_17_609
*1416 FILLER_17_616
*1417 FILLER_17_623
*1418 FILLER_17_63
*1419 FILLER_17_630
*1420 FILLER_17_637
*1421 FILLER_17_644
*1422 FILLER_17_651
*1423 FILLER_17_658
*1424 FILLER_17_665
*1425 FILLER_17_672
*1426 FILLER_17_679
*1427 FILLER_17_686
*1428 FILLER_17_693
*1429 FILLER_17_7
*1430 FILLER_17_70
*1431 FILLER_17_700
*1432 FILLER_17_707
*1433 FILLER_17_714
*1434 FILLER_17_721
*1435 FILLER_17_728
*1436 FILLER_17_735
*1437 FILLER_17_742
*1438 FILLER_17_749
*1439 FILLER_17_756
*1440 FILLER_17_763
*1441 FILLER_17_77
*1442 FILLER_17_770
*1443 FILLER_17_777
*1444 FILLER_17_784
*1445 FILLER_17_791
*1446 FILLER_17_798
*1447 FILLER_17_805
*1448 FILLER_17_812
*1449 FILLER_17_819
*1450 FILLER_17_826
*1451 FILLER_17_833
*1452 FILLER_17_84
*1453 FILLER_17_840
*1454 FILLER_17_847
*1455 FILLER_17_854
*1456 FILLER_17_861
*1457 FILLER_17_868
*1458 FILLER_17_875
*1459 FILLER_17_882
*1460 FILLER_17_889
*1461 FILLER_17_896
*1462 FILLER_17_903
*1463 FILLER_17_91
*1464 FILLER_17_910
*1465 FILLER_17_917
*1466 FILLER_17_924
*1467 FILLER_17_931
*1468 FILLER_17_938
*1469 FILLER_17_945
*1470 FILLER_17_952
*1471 FILLER_17_959
*1472 FILLER_17_966
*1473 FILLER_17_973
*1474 FILLER_17_98
*1475 FILLER_17_980
*1476 FILLER_17_987
*1477 FILLER_17_994
*1478 FILLER_18_1005
*1479 FILLER_18_1012
*1480 FILLER_18_1019
*1481 FILLER_18_102
*1482 FILLER_18_1026
*1483 FILLER_18_1028
*1484 FILLER_18_109
*1485 FILLER_18_11
*1486 FILLER_18_116
*1487 FILLER_18_123
*1488 FILLER_18_130
*1489 FILLER_18_137
*1490 FILLER_18_144
*1491 FILLER_18_151
*1492 FILLER_18_158
*1493 FILLER_18_165
*1494 FILLER_18_172
*1495 FILLER_18_179
*1496 FILLER_18_18
*1497 FILLER_18_186
*1498 FILLER_18_193
*1499 FILLER_18_200
*1500 FILLER_18_207
*1501 FILLER_18_214
*1502 FILLER_18_221
*1503 FILLER_18_228
*1504 FILLER_18_25
*1505 FILLER_18_256
*1506 FILLER_18_263
*1507 FILLER_18_270
*1508 FILLER_18_277
*1509 FILLER_18_284
*1510 FILLER_18_291
*1511 FILLER_18_298
*1512 FILLER_18_305
*1513 FILLER_18_312
*1514 FILLER_18_319
*1515 FILLER_18_32
*1516 FILLER_18_326
*1517 FILLER_18_333
*1518 FILLER_18_340
*1519 FILLER_18_347
*1520 FILLER_18_354
*1521 FILLER_18_361
*1522 FILLER_18_368
*1523 FILLER_18_375
*1524 FILLER_18_382
*1525 FILLER_18_389
*1526 FILLER_18_39
*1527 FILLER_18_396
*1528 FILLER_18_4
*1529 FILLER_18_403
*1530 FILLER_18_410
*1531 FILLER_18_417
*1532 FILLER_18_424
*1533 FILLER_18_431
*1534 FILLER_18_438
*1535 FILLER_18_445
*1536 FILLER_18_452
*1537 FILLER_18_459
*1538 FILLER_18_46
*1539 FILLER_18_466
*1540 FILLER_18_473
*1541 FILLER_18_480
*1542 FILLER_18_487
*1543 FILLER_18_494
*1544 FILLER_18_501
*1545 FILLER_18_508
*1546 FILLER_18_515
*1547 FILLER_18_522
*1548 FILLER_18_529
*1549 FILLER_18_53
*1550 FILLER_18_536
*1551 FILLER_18_543
*1552 FILLER_18_550
*1553 FILLER_18_557
*1554 FILLER_18_564
*1555 FILLER_18_571
*1556 FILLER_18_578
*1557 FILLER_18_585
*1558 FILLER_18_592
*1559 FILLER_18_599
*1560 FILLER_18_60
*1561 FILLER_18_606
*1562 FILLER_18_613
*1563 FILLER_18_620
*1564 FILLER_18_627
*1565 FILLER_18_634
*1566 FILLER_18_641
*1567 FILLER_18_648
*1568 FILLER_18_655
*1569 FILLER_18_662
*1570 FILLER_18_669
*1571 FILLER_18_67
*1572 FILLER_18_676
*1573 FILLER_18_683
*1574 FILLER_18_690
*1575 FILLER_18_697
*1576 FILLER_18_704
*1577 FILLER_18_711
*1578 FILLER_18_718
*1579 FILLER_18_725
*1580 FILLER_18_732
*1581 FILLER_18_739
*1582 FILLER_18_74
*1583 FILLER_18_746
*1584 FILLER_18_753
*1585 FILLER_18_760