* NGSPICE file created from heichips25_template.ext - technology: ihp-sg13g2

* Black-box entry subcircuit for sg13g2_decap_8 abstract view
.subckt sg13g2_decap_8 VDD VSS
.ends

* Black-box entry subcircuit for sg13g2_fill_2 abstract view
.subckt sg13g2_fill_2 VDD VSS
.ends

* Black-box entry subcircuit for sg13g2_dfrbpq_1 abstract view
.subckt sg13g2_dfrbpq_1 RESET_B VSS VDD D Q CLK
.ends

* Black-box entry subcircuit for sg13g2_or2_1 abstract view
.subckt sg13g2_or2_1 VSS VDD X B A
.ends

* Black-box entry subcircuit for sg13g2_decap_4 abstract view
.subckt sg13g2_decap_4 VDD VSS
.ends

* Black-box entry subcircuit for sg13g2_a22oi_1 abstract view
.subckt sg13g2_a22oi_1 Y B1 B2 A2 A1 VDD VSS
.ends

* Black-box entry subcircuit for sg13g2_fill_1 abstract view
.subckt sg13g2_fill_1 VDD VSS
.ends

* Black-box entry subcircuit for sg13g2_buf_1 abstract view
.subckt sg13g2_buf_1 A X VDD VSS
.ends

* Black-box entry subcircuit for sg13g2_and2_1 abstract view
.subckt sg13g2_and2_1 A B X VDD VSS
.ends

* Black-box entry subcircuit for sg13g2_nor2b_1 abstract view
.subckt sg13g2_nor2b_1 A B_N Y VDD VSS
.ends

* Black-box entry subcircuit for sg13g2_tiehi abstract view
.subckt sg13g2_tiehi VDD VSS L_HI
.ends

* Black-box entry subcircuit for sg13g2_inv_1 abstract view
.subckt sg13g2_inv_1 VDD Y A VSS
.ends

* Black-box entry subcircuit for sg13g2_a21o_1 abstract view
.subckt sg13g2_a21o_1 A2 A1 B1 X VDD VSS
.ends

* Black-box entry subcircuit for sg13g2_nand3_1 abstract view
.subckt sg13g2_nand3_1 B C A Y VDD VSS
.ends

* Black-box entry subcircuit for sg13g2_xor2_1 abstract view
.subckt sg13g2_xor2_1 B A X VDD VSS
.ends

* Black-box entry subcircuit for sg13g2_nand2b_1 abstract view
.subckt sg13g2_nand2b_1 Y B A_N VDD VSS
.ends

* Black-box entry subcircuit for sg13g2_tielo abstract view
.subckt sg13g2_tielo VDD VSS L_LO
.ends

* Black-box entry subcircuit for sg13g2_buf_8 abstract view
.subckt sg13g2_buf_8 A X VDD VSS
.ends

* Black-box entry subcircuit for sg13g2_nor2_1 abstract view
.subckt sg13g2_nor2_1 A B Y VDD VSS
.ends

* Black-box entry subcircuit for sg13g2_nand2_2 abstract view
.subckt sg13g2_nand2_2 Y A B VDD VSS
.ends

* Black-box entry subcircuit for sg13g2_nand2_1 abstract view
.subckt sg13g2_nand2_1 Y A B VDD VSS
.ends

* Black-box entry subcircuit for sg13g2_nor2b_2 abstract view
.subckt sg13g2_nor2b_2 A B_N Y VDD VSS
.ends

* Black-box entry subcircuit for sg13g2_buf_2 abstract view
.subckt sg13g2_buf_2 A X VDD VSS
.ends

* Black-box entry subcircuit for sg13g2_inv_2 abstract view
.subckt sg13g2_inv_2 Y A VDD VSS
.ends

* Black-box entry subcircuit for sg13g2_inv_4 abstract view
.subckt sg13g2_inv_4 A Y VDD VSS
.ends

* Black-box entry subcircuit for sg13g2_dfrbpq_2 abstract view
.subckt sg13g2_dfrbpq_2 RESET_B VSS VDD D Q CLK
.ends

* Black-box entry subcircuit for sg13g2_nor3_1 abstract view
.subckt sg13g2_nor3_1 A B C Y VDD VSS
.ends

* Black-box entry subcircuit for sg13g2_mux2_1 abstract view
.subckt sg13g2_mux2_1 A0 A1 S X VDD VSS
.ends

* Black-box entry subcircuit for sg13g2_o21ai_1 abstract view
.subckt sg13g2_o21ai_1 B1 VDD Y VSS A1 A2
.ends

* Black-box entry subcircuit for sg13g2_dlygate4sd3_1 abstract view
.subckt sg13g2_dlygate4sd3_1 A VDD VSS X
.ends

* Black-box entry subcircuit for sg13g2_xnor2_1 abstract view
.subckt sg13g2_xnor2_1 Y A B VDD VSS
.ends

* Black-box entry subcircuit for sg13g2_nand4_1 abstract view
.subckt sg13g2_nand4_1 B C A Y VDD VSS D
.ends

* Black-box entry subcircuit for sg13g2_nand3b_1 abstract view
.subckt sg13g2_nand3b_1 B C Y VDD VSS A_N
.ends

* Black-box entry subcircuit for sg13g2_nor2_2 abstract view
.subckt sg13g2_nor2_2 A B Y VDD VSS
.ends

* Black-box entry subcircuit for sg13g2_a21oi_2 abstract view
.subckt sg13g2_a21oi_2 VSS VDD B1 Y A2 A1
.ends

* Black-box entry subcircuit for sg13g2_nor4_1 abstract view
.subckt sg13g2_nor4_1 A B C D Y VDD VSS
.ends

.subckt heichips25_template VGND VPWR clk ena rst_n ui_in[0] ui_in[1] ui_in[2] ui_in[3]
+ ui_in[4] ui_in[5] ui_in[6] ui_in[7] uio_in[0] uio_in[1] uio_in[2] uio_in[3] uio_in[4]
+ uio_in[5] uio_in[6] uio_in[7] uio_oe[0] uio_oe[1] uio_oe[2] uio_oe[3] uio_oe[4]
+ uio_oe[5] uio_oe[6] uio_oe[7] uio_out[0] uio_out[1] uio_out[2] uio_out[3] uio_out[4]
+ uio_out[5] uio_out[6] uio_out[7] uo_out[0] uo_out[1] uo_out[2] uo_out[3] uo_out[4]
+ uo_out[5] uo_out[6] uo_out[7]
XFILLER_27_406 VPWR VGND sg13g2_decap_8
XFILLER_28_918 VPWR VGND sg13g2_decap_8
XFILLER_36_19 VPWR VGND sg13g2_decap_8
XFILLER_35_472 VPWR VGND sg13g2_decap_8
XFILLER_36_984 VPWR VGND sg13g2_decap_8
XFILLER_23_634 VPWR VGND sg13g2_decap_8
XFILLER_22_144 VPWR VGND sg13g2_decap_8
XFILLER_22_166 VPWR VGND sg13g2_decap_8
XFILLER_7_7 VPWR VGND sg13g2_decap_8
XFILLER_18_417 VPWR VGND sg13g2_decap_8
XFILLER_45_236 VPWR VGND sg13g2_decap_8
XFILLER_27_973 VPWR VGND sg13g2_decap_8
XFILLER_14_612 VPWR VGND sg13g2_decap_8
XFILLER_26_74 VPWR VGND sg13g2_decap_8
XFILLER_26_483 VPWR VGND sg13g2_decap_8
XFILLER_42_943 VPWR VGND sg13g2_decap_8
XFILLER_41_453 VPWR VGND sg13g2_decap_8
XFILLER_13_144 VPWR VGND sg13g2_decap_8
XFILLER_14_689 VPWR VGND sg13g2_decap_8
XFILLER_42_40 VPWR VGND sg13g2_decap_8
XFILLER_9_137 VPWR VGND sg13g2_decap_8
XFILLER_10_851 VPWR VGND sg13g2_decap_8
XFILLER_6_844 VPWR VGND sg13g2_decap_8
XFILLER_5_354 VPWR VGND sg13g2_decap_8
XFILLER_1_560 VPWR VGND sg13g2_decap_8
XFILLER_3_67 VPWR VGND sg13g2_decap_8
XFILLER_49_553 VPWR VGND sg13g2_decap_8
XFILLER_37_748 VPWR VGND sg13g2_decap_8
XFILLER_36_247 VPWR VGND sg13g2_decap_8
XFILLER_17_483 VPWR VGND sg13g2_decap_8
XFILLER_18_984 VPWR VGND sg13g2_decap_8
XFILLER_33_943 VPWR VGND sg13g2_decap_8
XFILLER_32_453 VPWR VGND sg13g2_decap_8
XFILLER_41_1013 VPWR VGND sg13g2_decap_8
XFILLER_28_715 VPWR VGND sg13g2_decap_8
XFILLER_27_203 VPWR VGND sg13g2_decap_8
XFILLER_24_921 VPWR VGND sg13g2_decap_8
XFILLER_36_781 VPWR VGND sg13g2_decap_8
XFILLER_23_431 VPWR VGND sg13g2_decap_8
XFILLER_24_998 VPWR VGND sg13g2_decap_8
XFILLER_11_648 VPWR VGND sg13g2_decap_8
XFILLER_10_158 VPWR VGND sg13g2_decap_8
XFILLER_12_32 VPWR VGND sg13g2_decap_8
XFILLER_5_4 VPWR VGND sg13g2_decap_8
XFILLER_3_858 VPWR VGND sg13g2_decap_8
XFILLER_2_368 VPWR VGND sg13g2_decap_8
XFILLER_18_214 VPWR VGND sg13g2_decap_8
XFILLER_19_748 VPWR VGND sg13g2_decap_8
XFILLER_46_567 VPWR VGND sg13g2_decap_8
XFILLER_37_84 VPWR VGND sg13g2_decap_8
XFILLER_15_910 VPWR VGND sg13g2_decap_8
XFILLER_27_770 VPWR VGND sg13g2_decap_8
XFILLER_42_740 VPWR VGND sg13g2_decap_8
XFILLER_15_987 VPWR VGND sg13g2_decap_8
XFILLER_18_1026 VPWR VGND sg13g2_fill_2
XFILLER_14_486 VPWR VGND sg13g2_decap_8
XFILLER_30_968 VPWR VGND sg13g2_decap_8
XFILLER_6_641 VPWR VGND sg13g2_decap_8
XFILLER_5_151 VPWR VGND sg13g2_decap_8
XFILLER_45_5 VPWR VGND sg13g2_decap_8
XFILLER_38_4 VPWR VGND sg13g2_decap_8
XFILLER_49_350 VPWR VGND sg13g2_decap_8
XFILLER_37_545 VPWR VGND sg13g2_decap_8
XFILLER_18_781 VPWR VGND sg13g2_decap_8
XFILLER_17_280 VPWR VGND sg13g2_decap_8
XFILLER_33_740 VPWR VGND sg13g2_decap_8
XFILLER_21_913 VPWR VGND sg13g2_decap_8
XFILLER_32_250 VPWR VGND sg13g2_decap_8
XFILLER_20_467 VPWR VGND sg13g2_decap_8
XFILLER_28_512 VPWR VGND sg13g2_decap_8
XFILLER_28_589 VPWR VGND sg13g2_decap_8
XFILLER_43_537 VPWR VGND sg13g2_decap_8
XFILLER_12_935 VPWR VGND sg13g2_decap_8
XFILLER_24_795 VPWR VGND sg13g2_decap_8
XFILLER_8_928 VPWR VGND sg13g2_decap_8
XFILLER_11_445 VPWR VGND sg13g2_decap_8
XFILLER_23_53 VPWR VGND sg13g2_decap_8
X_131_ net14 VGND VPWR mod1.qam16_mod.i_level\[2\] mod1.i_out_qam16\[2\] clknet_2_1__leaf_clk
+ sg13g2_dfrbpq_1
XFILLER_7_427 VPWR VGND sg13g2_decap_8
X_062_ VGND VPWR _037_ net10 net16 sg13g2_or2_1
XFILLER_48_1008 VPWR VGND sg13g2_decap_8
XFILLER_3_655 VPWR VGND sg13g2_decap_8
XFILLER_2_165 VPWR VGND sg13g2_decap_8
XFILLER_47_854 VPWR VGND sg13g2_decap_8
XFILLER_0_35 VPWR VGND sg13g2_decap_8
XFILLER_19_545 VPWR VGND sg13g2_decap_8
XFILLER_46_364 VPWR VGND sg13g2_decap_8
XFILLER_34_559 VPWR VGND sg13g2_decap_8
XFILLER_9_11 VPWR VGND sg13g2_decap_8
XFILLER_14_283 VPWR VGND sg13g2_decap_8
XFILLER_15_784 VPWR VGND sg13g2_decap_8
XFILLER_9_88 VPWR VGND sg13g2_decap_8
XFILLER_30_765 VPWR VGND sg13g2_decap_8
XFILLER_31_1023 VPWR VGND sg13g2_decap_4
XFILLER_7_994 VPWR VGND sg13g2_decap_8
XFILLER_29_0 VPWR VGND sg13g2_decap_8
XFILLER_37_342 VPWR VGND sg13g2_decap_8
XFILLER_38_876 VPWR VGND sg13g2_decap_8
XFILLER_44_19 VPWR VGND sg13g2_decap_8
XFILLER_25_537 VPWR VGND sg13g2_decap_8
XFILLER_21_710 VPWR VGND sg13g2_decap_8
XFILLER_20_242 VPWR VGND sg13g2_decap_8
XFILLER_21_787 VPWR VGND sg13g2_decap_8
XFILLER_0_658 VPWR VGND sg13g2_decap_8
XFILLER_18_53 VPWR VGND sg13g2_decap_8
XFILLER_28_342 VPWR VGND sg13g2_decap_4
XFILLER_29_865 VPWR VGND sg13g2_decap_8
XFILLER_44_824 VPWR VGND sg13g2_decap_8
XFILLER_28_375 VPWR VGND sg13g2_decap_8
XFILLER_43_334 VPWR VGND sg13g2_decap_8
XFILLER_16_559 VPWR VGND sg13g2_decap_8
XFILLER_12_732 VPWR VGND sg13g2_decap_8
XFILLER_24_592 VPWR VGND sg13g2_decap_8
XFILLER_34_96 VPWR VGND sg13g2_decap_8
XFILLER_8_725 VPWR VGND sg13g2_decap_8
XFILLER_11_242 VPWR VGND sg13g2_decap_8
XFILLER_7_224 VPWR VGND sg13g2_decap_8
X_114_ _004_ _027_ _028_ _025_ _023_ VPWR VGND sg13g2_a22oi_1
XFILLER_4_942 VPWR VGND sg13g2_decap_8
XFILLER_3_452 VPWR VGND sg13g2_decap_8
XFILLER_47_651 VPWR VGND sg13g2_decap_8
XFILLER_19_353 VPWR VGND sg13g2_decap_8
XFILLER_46_161 VPWR VGND sg13g2_decap_8
XFILLER_35_857 VPWR VGND sg13g2_decap_8
XFILLER_34_345 VPWR VGND sg13g2_decap_8
XFILLER_34_356 VPWR VGND sg13g2_fill_1
XFILLER_15_581 VPWR VGND sg13g2_decap_8
XFILLER_30_562 VPWR VGND sg13g2_decap_8
XFILLER_7_791 VPWR VGND sg13g2_decap_8
XFILLER_38_673 VPWR VGND sg13g2_decap_8
XFILLER_25_367 VPWR VGND sg13g2_decap_8
XFILLER_26_868 VPWR VGND sg13g2_decap_8
XFILLER_37_194 VPWR VGND sg13g2_decap_8
XFILLER_41_838 VPWR VGND sg13g2_decap_8
XFILLER_13_529 VPWR VGND sg13g2_decap_8
XFILLER_40_348 VPWR VGND sg13g2_decap_8
XFILLER_21_584 VPWR VGND sg13g2_decap_8
XFILLER_5_739 VPWR VGND sg13g2_decap_8
XFILLER_4_249 VPWR VGND sg13g2_decap_8
XFILLER_20_32 VPWR VGND sg13g2_decap_8
XFILLER_1_945 VPWR VGND sg13g2_decap_8
XFILLER_0_455 VPWR VGND sg13g2_decap_8
XFILLER_49_938 VPWR VGND sg13g2_decap_8
XFILLER_48_448 VPWR VGND sg13g2_decap_8
XFILLER_21_1011 VPWR VGND sg13g2_decap_8
XFILLER_29_63 VPWR VGND sg13g2_decap_8
XFILLER_29_662 VPWR VGND sg13g2_decap_8
XFILLER_45_40 VPWR VGND sg13g2_decap_8
XFILLER_44_621 VPWR VGND sg13g2_decap_8
XFILLER_16_312 VPWR VGND sg13g2_decap_8
XFILLER_28_183 VPWR VGND sg13g2_decap_8
XFILLER_43_131 VPWR VGND sg13g2_decap_8
XFILLER_16_356 VPWR VGND sg13g2_decap_8
XFILLER_17_868 VPWR VGND sg13g2_decap_8
XFILLER_44_698 VPWR VGND sg13g2_decap_8
XFILLER_32_838 VPWR VGND sg13g2_decap_8
XFILLER_31_337 VPWR VGND sg13g2_decap_8
XFILLER_8_522 VPWR VGND sg13g2_decap_8
XFILLER_8_599 VPWR VGND sg13g2_decap_8
XFILLER_6_67 VPWR VGND sg13g2_decap_8
XFILLER_6_1005 VPWR VGND sg13g2_decap_8
XFILLER_20_4 VPWR VGND sg13g2_decap_8
XFILLER_39_459 VPWR VGND sg13g2_decap_8
XFILLER_26_109 VPWR VGND sg13g2_decap_8
XFILLER_34_131 VPWR VGND sg13g2_decap_8
XFILLER_35_654 VPWR VGND sg13g2_decap_8
XFILLER_23_816 VPWR VGND sg13g2_decap_8
XFILLER_22_348 VPWR VGND sg13g2_decap_8
XFILLER_45_418 VPWR VGND sg13g2_decap_8
XFILLER_38_470 VPWR VGND sg13g2_decap_8
XFILLER_26_665 VPWR VGND sg13g2_decap_8
XFILLER_15_32 VPWR VGND sg13g2_decap_8
XFILLER_25_175 VPWR VGND sg13g2_decap_8
XFILLER_41_635 VPWR VGND sg13g2_decap_8
XFILLER_13_326 VPWR VGND sg13g2_decap_8
XFILLER_40_123 VPWR VGND sg13g2_decap_8
XFILLER_9_319 VPWR VGND sg13g2_decap_8
XFILLER_21_381 VPWR VGND sg13g2_decap_8
XFILLER_5_536 VPWR VGND sg13g2_decap_8
XFILLER_31_75 VPWR VGND sg13g2_decap_8
Xoutput20 net25 uo_out[0] VPWR VGND sg13g2_buf_1
XFILLER_1_742 VPWR VGND sg13g2_decap_8
XFILLER_0_252 VPWR VGND sg13g2_decap_8
XFILLER_49_735 VPWR VGND sg13g2_decap_8
XFILLER_48_245 VPWR VGND sg13g2_decap_8
XFILLER_17_665 VPWR VGND sg13g2_decap_8
XFILLER_45_985 VPWR VGND sg13g2_decap_8
XFILLER_44_495 VPWR VGND sg13g2_decap_8
XFILLER_16_186 VPWR VGND sg13g2_decap_8
XFILLER_32_635 VPWR VGND sg13g2_decap_8
XFILLER_31_145 VPWR VGND sg13g2_decap_8
XFILLER_13_893 VPWR VGND sg13g2_decap_8
XFILLER_9_886 VPWR VGND sg13g2_decap_8
XFILLER_8_396 VPWR VGND sg13g2_decap_8
XFILLER_39_256 VPWR VGND sg13g2_decap_8
XFILLER_36_963 VPWR VGND sg13g2_decap_8
XFILLER_23_613 VPWR VGND sg13g2_decap_8
XFILLER_35_451 VPWR VGND sg13g2_decap_8
XFILLER_22_123 VPWR VGND sg13g2_decap_8
XFILLER_46_749 VPWR VGND sg13g2_decap_8
XFILLER_45_215 VPWR VGND sg13g2_decap_8
XFILLER_27_952 VPWR VGND sg13g2_decap_8
XFILLER_42_922 VPWR VGND sg13g2_decap_8
XFILLER_26_53 VPWR VGND sg13g2_decap_8
XFILLER_26_462 VPWR VGND sg13g2_decap_8
XFILLER_41_432 VPWR VGND sg13g2_decap_8
XFILLER_13_123 VPWR VGND sg13g2_decap_8
XFILLER_42_999 VPWR VGND sg13g2_decap_8
XFILLER_9_116 VPWR VGND sg13g2_decap_8
XFILLER_14_668 VPWR VGND sg13g2_decap_8
XFILLER_10_830 VPWR VGND sg13g2_decap_8
XFILLER_42_96 VPWR VGND sg13g2_decap_8
XFILLER_6_823 VPWR VGND sg13g2_decap_8
XFILLER_5_333 VPWR VGND sg13g2_decap_8
XFILLER_3_46 VPWR VGND sg13g2_decap_8
XFILLER_49_532 VPWR VGND sg13g2_decap_8
XFILLER_3_1019 VPWR VGND sg13g2_decap_8
XFILLER_36_215 VPWR VGND sg13g2_decap_8
XFILLER_37_727 VPWR VGND sg13g2_decap_8
XFILLER_18_963 VPWR VGND sg13g2_decap_8
XFILLER_45_782 VPWR VGND sg13g2_decap_8
XFILLER_17_462 VPWR VGND sg13g2_decap_8
XFILLER_33_922 VPWR VGND sg13g2_decap_8
XFILLER_44_292 VPWR VGND sg13g2_decap_8
XFILLER_32_432 VPWR VGND sg13g2_decap_8
XFILLER_33_999 VPWR VGND sg13g2_decap_8
XFILLER_20_649 VPWR VGND sg13g2_decap_8
XFILLER_34_1021 VPWR VGND sg13g2_decap_8
XFILLER_13_690 VPWR VGND sg13g2_decap_8
XFILLER_9_683 VPWR VGND sg13g2_decap_8
XFILLER_8_193 VPWR VGND sg13g2_decap_8
XFILLER_27_259 VPWR VGND sg13g2_decap_8
XFILLER_43_719 VPWR VGND sg13g2_decap_8
XFILLER_24_900 VPWR VGND sg13g2_decap_8
XFILLER_36_760 VPWR VGND sg13g2_decap_8
XFILLER_42_229 VPWR VGND sg13g2_decap_8
XFILLER_23_410 VPWR VGND sg13g2_decap_8
XFILLER_35_292 VPWR VGND sg13g2_decap_4
XFILLER_24_977 VPWR VGND sg13g2_decap_8
XFILLER_11_627 VPWR VGND sg13g2_decap_8
XFILLER_23_487 VPWR VGND sg13g2_decap_8
XFILLER_10_137 VPWR VGND sg13g2_decap_8
XFILLER_7_609 VPWR VGND sg13g2_decap_8
XFILLER_12_11 VPWR VGND sg13g2_decap_8
XFILLER_12_88 VPWR VGND sg13g2_decap_8
XFILLER_3_837 VPWR VGND sg13g2_decap_8
XFILLER_2_347 VPWR VGND sg13g2_decap_8
XFILLER_19_727 VPWR VGND sg13g2_decap_8
XFILLER_46_546 VPWR VGND sg13g2_decap_8
XFILLER_37_63 VPWR VGND sg13g2_decap_8
XFILLER_26_281 VPWR VGND sg13g2_decap_8
XFILLER_33_229 VPWR VGND sg13g2_decap_8
XFILLER_14_465 VPWR VGND sg13g2_decap_8
XFILLER_15_966 VPWR VGND sg13g2_decap_8
XFILLER_18_1005 VPWR VGND sg13g2_decap_8
XFILLER_42_796 VPWR VGND sg13g2_decap_8
XFILLER_30_947 VPWR VGND sg13g2_decap_8
XFILLER_6_620 VPWR VGND sg13g2_decap_8
XFILLER_5_130 VPWR VGND sg13g2_decap_8
XFILLER_6_697 VPWR VGND sg13g2_decap_8
XFILLER_37_524 VPWR VGND sg13g2_decap_8
XFILLER_18_760 VPWR VGND sg13g2_decap_8
XFILLER_25_719 VPWR VGND sg13g2_decap_8
XFILLER_24_229 VPWR VGND sg13g2_decap_8
XFILLER_33_796 VPWR VGND sg13g2_decap_8
XFILLER_20_446 VPWR VGND sg13g2_decap_8
XFILLER_21_969 VPWR VGND sg13g2_decap_8
XFILLER_9_480 VPWR VGND sg13g2_decap_8
XFILLER_43_516 VPWR VGND sg13g2_decap_8
XFILLER_28_568 VPWR VGND sg13g2_decap_8
XFILLER_12_914 VPWR VGND sg13g2_decap_8
XFILLER_11_424 VPWR VGND sg13g2_decap_8
XFILLER_23_251 VPWR VGND sg13g2_decap_8
XFILLER_24_774 VPWR VGND sg13g2_decap_8
XFILLER_8_907 VPWR VGND sg13g2_decap_8
XFILLER_7_406 VPWR VGND sg13g2_decap_8
XFILLER_23_32 VPWR VGND sg13g2_decap_8
X_130_ net15 VGND VPWR _008_ mod1.i_out_8psk\[2\] clknet_2_3__leaf_clk sg13g2_dfrbpq_1
X_061_ net7 net6 _036_ VPWR VGND sg13g2_and2_1
XFILLER_3_634 VPWR VGND sg13g2_decap_8
XFILLER_2_144 VPWR VGND sg13g2_decap_8
XFILLER_47_833 VPWR VGND sg13g2_decap_8
XFILLER_48_84 VPWR VGND sg13g2_decap_8
XFILLER_19_524 VPWR VGND sg13g2_decap_8
XFILLER_46_343 VPWR VGND sg13g2_decap_8
XFILLER_0_14 VPWR VGND sg13g2_decap_8
XFILLER_34_538 VPWR VGND sg13g2_decap_8
XFILLER_15_763 VPWR VGND sg13g2_decap_8
XFILLER_14_262 VPWR VGND sg13g2_decap_8
XFILLER_42_593 VPWR VGND sg13g2_decap_8
XFILLER_9_67 VPWR VGND sg13g2_decap_8
XFILLER_30_744 VPWR VGND sg13g2_decap_8
XFILLER_31_1002 VPWR VGND sg13g2_decap_8
XFILLER_11_991 VPWR VGND sg13g2_decap_8
XFILLER_7_973 VPWR VGND sg13g2_decap_8
XFILLER_6_494 VPWR VGND sg13g2_decap_8
XFILLER_37_321 VPWR VGND sg13g2_decap_8
XFILLER_38_855 VPWR VGND sg13g2_decap_8
XFILLER_25_516 VPWR VGND sg13g2_decap_8
XFILLER_37_398 VPWR VGND sg13g2_decap_8
XFILLER_20_221 VPWR VGND sg13g2_decap_8
XFILLER_33_593 VPWR VGND sg13g2_decap_8
XFILLER_21_766 VPWR VGND sg13g2_decap_8
XFILLER_20_298 VPWR VGND sg13g2_decap_8
XFILLER_0_637 VPWR VGND sg13g2_decap_8
XFILLER_18_32 VPWR VGND sg13g2_decap_8
XFILLER_28_321 VPWR VGND sg13g2_decap_8
XFILLER_29_844 VPWR VGND sg13g2_decap_8
XFILLER_44_803 VPWR VGND sg13g2_decap_8
XFILLER_43_313 VPWR VGND sg13g2_decap_8
XFILLER_16_538 VPWR VGND sg13g2_decap_8
XFILLER_12_711 VPWR VGND sg13g2_decap_8
XFILLER_24_571 VPWR VGND sg13g2_decap_8
XFILLER_31_519 VPWR VGND sg13g2_decap_8
XFILLER_8_704 VPWR VGND sg13g2_decap_8
XFILLER_11_221 VPWR VGND sg13g2_decap_8
XFILLER_15_1008 VPWR VGND sg13g2_decap_8
XFILLER_34_75 VPWR VGND sg13g2_decap_8
XFILLER_7_203 VPWR VGND sg13g2_decap_8
XFILLER_12_788 VPWR VGND sg13g2_decap_8
XFILLER_11_298 VPWR VGND sg13g2_decap_8
X_113_ net20 net12 _028_ VPWR VGND sg13g2_nor2b_1
XFILLER_4_921 VPWR VGND sg13g2_decap_8
XFILLER_3_431 VPWR VGND sg13g2_decap_8
XFILLER_4_998 VPWR VGND sg13g2_decap_8
XFILLER_47_630 VPWR VGND sg13g2_decap_8
XFILLER_19_332 VPWR VGND sg13g2_decap_8
XFILLER_46_140 VPWR VGND sg13g2_decap_8
XFILLER_34_324 VPWR VGND sg13g2_decap_8
XFILLER_35_836 VPWR VGND sg13g2_decap_8
XFILLER_43_880 VPWR VGND sg13g2_decap_8
XFILLER_15_560 VPWR VGND sg13g2_decap_8
XFILLER_42_390 VPWR VGND sg13g2_decap_8
XFILLER_30_541 VPWR VGND sg13g2_decap_8
XFILLER_7_770 VPWR VGND sg13g2_decap_8
XFILLER_6_291 VPWR VGND sg13g2_decap_8
XFILLER_37_140 VPWR VGND sg13g2_decap_8
XFILLER_37_151 VPWR VGND sg13g2_fill_2
XFILLER_38_652 VPWR VGND sg13g2_decap_8
XFILLER_26_847 VPWR VGND sg13g2_decap_8
XFILLER_25_346 VPWR VGND sg13g2_decap_8
XFILLER_41_817 VPWR VGND sg13g2_decap_8
XFILLER_13_508 VPWR VGND sg13g2_decap_8
XFILLER_40_327 VPWR VGND sg13g2_decap_8
XFILLER_21_563 VPWR VGND sg13g2_decap_8
XFILLER_5_718 VPWR VGND sg13g2_decap_8
XFILLER_4_228 VPWR VGND sg13g2_decap_8
XFILLER_20_11 VPWR VGND sg13g2_decap_8
XFILLER_1_924 VPWR VGND sg13g2_decap_8
XFILLER_20_88 VPWR VGND sg13g2_decap_8
XFILLER_49_917 VPWR VGND sg13g2_decap_8
XFILLER_0_434 VPWR VGND sg13g2_decap_8
XFILLER_48_427 VPWR VGND sg13g2_decap_8
XFILLER_29_42 VPWR VGND sg13g2_decap_8
XFILLER_29_641 VPWR VGND sg13g2_decap_8
XFILLER_44_600 VPWR VGND sg13g2_decap_8
XFILLER_17_847 VPWR VGND sg13g2_decap_8
XFILLER_43_110 VPWR VGND sg13g2_decap_8
XFILLER_45_96 VPWR VGND sg13g2_decap_8
XFILLER_44_677 VPWR VGND sg13g2_decap_8
XFILLER_25_880 VPWR VGND sg13g2_decap_8
XFILLER_31_316 VPWR VGND sg13g2_decap_8
XFILLER_32_817 VPWR VGND sg13g2_decap_8
XFILLER_43_187 VPWR VGND sg13g2_decap_8
XFILLER_8_501 VPWR VGND sg13g2_decap_8
XFILLER_12_585 VPWR VGND sg13g2_decap_8
XFILLER_40_894 VPWR VGND sg13g2_decap_8
XFILLER_8_578 VPWR VGND sg13g2_decap_8
XFILLER_6_46 VPWR VGND sg13g2_decap_8
XFILLER_4_795 VPWR VGND sg13g2_decap_8
XFILLER_6_1028 VPWR VGND sg13g2_fill_1
XFILLER_13_4 VPWR VGND sg13g2_decap_8
XFILLER_39_438 VPWR VGND sg13g2_decap_8
XFILLER_48_994 VPWR VGND sg13g2_decap_8
XFILLER_19_151 VPWR VGND sg13g2_fill_2
XFILLER_35_633 VPWR VGND sg13g2_decap_8
XFILLER_34_110 VPWR VGND sg13g2_decap_8
XFILLER_22_327 VPWR VGND sg13g2_decap_8
XFILLER_34_187 VPWR VGND sg13g2_decap_8
XFILLER_34_198 VPWR VGND sg13g2_fill_2
XFILLER_31_883 VPWR VGND sg13g2_decap_8
Xheichips25_template_33 VPWR VGND uio_oe[0] sg13g2_tiehi
XFILLER_26_644 VPWR VGND sg13g2_decap_8
XFILLER_41_614 VPWR VGND sg13g2_decap_8
XFILLER_13_305 VPWR VGND sg13g2_decap_8
XFILLER_15_11 VPWR VGND sg13g2_decap_8
XFILLER_40_102 VPWR VGND sg13g2_decap_8
XFILLER_15_88 VPWR VGND sg13g2_decap_8
XFILLER_21_360 VPWR VGND sg13g2_decap_8
XFILLER_40_179 VPWR VGND sg13g2_decap_8
XFILLER_5_515 VPWR VGND sg13g2_decap_8
XFILLER_31_54 VPWR VGND sg13g2_decap_8
Xoutput21 net26 uo_out[1] VPWR VGND sg13g2_buf_1
XFILLER_1_721 VPWR VGND sg13g2_decap_8
XFILLER_49_714 VPWR VGND sg13g2_decap_8
XFILLER_0_231 VPWR VGND sg13g2_decap_8
XFILLER_48_224 VPWR VGND sg13g2_decap_8
XFILLER_1_798 VPWR VGND sg13g2_decap_8
XFILLER_37_909 VPWR VGND sg13g2_decap_8
XFILLER_45_964 VPWR VGND sg13g2_decap_8
XFILLER_17_644 VPWR VGND sg13g2_decap_8
XFILLER_44_474 VPWR VGND sg13g2_decap_8
XFILLER_16_165 VPWR VGND sg13g2_decap_8
XFILLER_32_614 VPWR VGND sg13g2_decap_8
XFILLER_31_124 VPWR VGND sg13g2_decap_8
XFILLER_13_872 VPWR VGND sg13g2_decap_8
XFILLER_12_382 VPWR VGND sg13g2_decap_8
XFILLER_9_865 VPWR VGND sg13g2_decap_8
XFILLER_40_691 VPWR VGND sg13g2_decap_8
XFILLER_8_375 VPWR VGND sg13g2_decap_8
XFILLER_4_592 VPWR VGND sg13g2_decap_8
XFILLER_39_235 VPWR VGND sg13g2_decap_8
XFILLER_48_791 VPWR VGND sg13g2_decap_8
XFILLER_35_430 VPWR VGND sg13g2_decap_8
XFILLER_36_942 VPWR VGND sg13g2_decap_8
XFILLER_22_102 VPWR VGND sg13g2_decap_8
XFILLER_11_809 VPWR VGND sg13g2_decap_8
XFILLER_23_669 VPWR VGND sg13g2_decap_8
XFILLER_10_319 VPWR VGND sg13g2_decap_8
XFILLER_31_680 VPWR VGND sg13g2_decap_8
XFILLER_2_529 VPWR VGND sg13g2_decap_8
XFILLER_19_909 VPWR VGND sg13g2_decap_8
XFILLER_46_728 VPWR VGND sg13g2_decap_8
XFILLER_26_32 VPWR VGND sg13g2_decap_8
XFILLER_27_931 VPWR VGND sg13g2_decap_8
XFILLER_42_901 VPWR VGND sg13g2_decap_8
XFILLER_26_441 VPWR VGND sg13g2_decap_8
XFILLER_41_411 VPWR VGND sg13g2_decap_8
XFILLER_13_102 VPWR VGND sg13g2_decap_8
XFILLER_14_647 VPWR VGND sg13g2_decap_8
XFILLER_42_978 VPWR VGND sg13g2_decap_8
XFILLER_41_488 VPWR VGND sg13g2_decap_8
XFILLER_13_179 VPWR VGND sg13g2_decap_8
XFILLER_42_75 VPWR VGND sg13g2_decap_8
XFILLER_6_802 VPWR VGND sg13g2_decap_8
XFILLER_21_190 VPWR VGND sg13g2_decap_8
XFILLER_5_312 VPWR VGND sg13g2_decap_8
XFILLER_10_886 VPWR VGND sg13g2_decap_8
XFILLER_6_879 VPWR VGND sg13g2_decap_8
XFILLER_5_389 VPWR VGND sg13g2_decap_8
XFILLER_3_25 VPWR VGND sg13g2_decap_8
XFILLER_49_511 VPWR VGND sg13g2_decap_8
XFILLER_1_595 VPWR VGND sg13g2_decap_8
XFILLER_37_706 VPWR VGND sg13g2_decap_8
XFILLER_49_588 VPWR VGND sg13g2_decap_8
XFILLER_18_942 VPWR VGND sg13g2_decap_8
XFILLER_45_761 VPWR VGND sg13g2_decap_8
XFILLER_17_441 VPWR VGND sg13g2_decap_8
XFILLER_33_901 VPWR VGND sg13g2_decap_8
XFILLER_44_271 VPWR VGND sg13g2_decap_8
XFILLER_32_411 VPWR VGND sg13g2_decap_8
XFILLER_33_978 VPWR VGND sg13g2_decap_8
XFILLER_34_1000 VPWR VGND sg13g2_decap_8
XFILLER_20_628 VPWR VGND sg13g2_decap_8
XFILLER_32_488 VPWR VGND sg13g2_decap_8
XFILLER_9_662 VPWR VGND sg13g2_decap_8
XFILLER_8_172 VPWR VGND sg13g2_decap_8
XFILLER_27_238 VPWR VGND sg13g2_decap_8
XFILLER_42_208 VPWR VGND sg13g2_decap_8
XFILLER_24_956 VPWR VGND sg13g2_decap_8
XFILLER_11_606 VPWR VGND sg13g2_decap_8
XFILLER_23_466 VPWR VGND sg13g2_decap_8
XFILLER_10_116 VPWR VGND sg13g2_decap_8
XFILLER_6_109 VPWR VGND sg13g2_decap_8
XFILLER_12_67 VPWR VGND sg13g2_decap_8
XFILLER_3_816 VPWR VGND sg13g2_decap_8
XFILLER_2_326 VPWR VGND sg13g2_decap_8
XFILLER_19_706 VPWR VGND sg13g2_decap_8
XFILLER_46_525 VPWR VGND sg13g2_decap_8
XFILLER_37_42 VPWR VGND sg13g2_decap_8
XFILLER_15_945 VPWR VGND sg13g2_decap_8
XFILLER_26_260 VPWR VGND sg13g2_decap_8
XFILLER_14_444 VPWR VGND sg13g2_decap_8
XFILLER_18_1028 VPWR VGND sg13g2_fill_1
XFILLER_42_775 VPWR VGND sg13g2_decap_8
XFILLER_30_926 VPWR VGND sg13g2_decap_8
XFILLER_41_263 VPWR VGND sg13g2_decap_8
XFILLER_41_285 VPWR VGND sg13g2_decap_8
XFILLER_10_683 VPWR VGND sg13g2_decap_8
XFILLER_6_676 VPWR VGND sg13g2_decap_8
XFILLER_5_186 VPWR VGND sg13g2_decap_8
XFILLER_2_893 VPWR VGND sg13g2_decap_8
XFILLER_1_392 VPWR VGND sg13g2_decap_8
XFILLER_37_503 VPWR VGND sg13g2_decap_8
XFILLER_49_385 VPWR VGND sg13g2_decap_8
XFILLER_24_208 VPWR VGND sg13g2_decap_8
XFILLER_21_948 VPWR VGND sg13g2_decap_8
XFILLER_33_775 VPWR VGND sg13g2_decap_8
XFILLER_20_425 VPWR VGND sg13g2_decap_8
XFILLER_32_285 VPWR VGND sg13g2_fill_2
XFILLER_0_819 VPWR VGND sg13g2_decap_8
XFILLER_28_547 VPWR VGND sg13g2_decap_8
XFILLER_15_219 VPWR VGND sg13g2_decap_8
XFILLER_23_230 VPWR VGND sg13g2_decap_8
XFILLER_24_753 VPWR VGND sg13g2_decap_8
XFILLER_11_403 VPWR VGND sg13g2_decap_8
XFILLER_23_11 VPWR VGND sg13g2_decap_8
XFILLER_23_88 VPWR VGND sg13g2_decap_8
XFILLER_20_992 VPWR VGND sg13g2_decap_8
X_060_ VPWR _035_ net47 VGND sg13g2_inv_1
XFILLER_3_613 VPWR VGND sg13g2_decap_8
XFILLER_2_123 VPWR VGND sg13g2_decap_8
XFILLER_47_812 VPWR VGND sg13g2_decap_8
XFILLER_48_63 VPWR VGND sg13g2_decap_8
XFILLER_19_503 VPWR VGND sg13g2_decap_8
XFILLER_46_322 VPWR VGND sg13g2_decap_8
XFILLER_47_889 VPWR VGND sg13g2_decap_8
XFILLER_34_517 VPWR VGND sg13g2_decap_8
XFILLER_46_399 VPWR VGND sg13g2_decap_8
XFILLER_15_742 VPWR VGND sg13g2_decap_8
XFILLER_42_572 VPWR VGND sg13g2_decap_8
XFILLER_30_723 VPWR VGND sg13g2_decap_8
XFILLER_9_46 VPWR VGND sg13g2_decap_8
XFILLER_11_970 VPWR VGND sg13g2_decap_8
XFILLER_10_480 VPWR VGND sg13g2_decap_8
XFILLER_7_952 VPWR VGND sg13g2_decap_8
XFILLER_6_473 VPWR VGND sg13g2_decap_8
XFILLER_9_1026 VPWR VGND sg13g2_fill_2
XFILLER_2_690 VPWR VGND sg13g2_decap_8
XFILLER_49_182 VPWR VGND sg13g2_decap_8
XFILLER_38_834 VPWR VGND sg13g2_decap_8
XFILLER_37_377 VPWR VGND sg13g2_decap_8
XFILLER_40_509 VPWR VGND sg13g2_decap_8
XFILLER_33_572 VPWR VGND sg13g2_decap_8
XFILLER_20_200 VPWR VGND sg13g2_decap_8
XFILLER_21_745 VPWR VGND sg13g2_decap_8
XFILLER_20_277 VPWR VGND sg13g2_decap_8
XFILLER_0_616 VPWR VGND sg13g2_decap_8
XFILLER_48_609 VPWR VGND sg13g2_decap_8
XFILLER_47_119 VPWR VGND sg13g2_decap_8
XFILLER_29_823 VPWR VGND sg13g2_decap_8
XFILLER_18_11 VPWR VGND sg13g2_decap_8
XFILLER_28_300 VPWR VGND sg13g2_decap_8
XFILLER_16_517 VPWR VGND sg13g2_decap_8
XFILLER_18_88 VPWR VGND sg13g2_decap_8
XFILLER_44_859 VPWR VGND sg13g2_decap_8
XFILLER_43_369 VPWR VGND sg13g2_decap_8
XFILLER_24_550 VPWR VGND sg13g2_decap_8
XFILLER_34_54 VPWR VGND sg13g2_decap_8
XFILLER_11_200 VPWR VGND sg13g2_decap_8
XFILLER_12_767 VPWR VGND sg13g2_decap_8
XFILLER_11_277 VPWR VGND sg13g2_decap_8
X_112_ net1 net17 _026_ _027_ VPWR VGND sg13g2_a21o_1
XFILLER_7_259 VPWR VGND sg13g2_decap_8
XFILLER_4_900 VPWR VGND sg13g2_decap_8
XFILLER_3_410 VPWR VGND sg13g2_decap_8
XFILLER_4_977 VPWR VGND sg13g2_decap_8
XFILLER_3_487 VPWR VGND sg13g2_decap_8
XFILLER_1_0 VPWR VGND sg13g2_decap_8
XFILLER_19_311 VPWR VGND sg13g2_decap_8
XFILLER_35_815 VPWR VGND sg13g2_decap_8
XFILLER_47_686 VPWR VGND sg13g2_decap_8
XFILLER_46_196 VPWR VGND sg13g2_decap_8
XFILLER_30_520 VPWR VGND sg13g2_decap_8
XFILLER_30_597 VPWR VGND sg13g2_decap_8
XFILLER_6_270 VPWR VGND sg13g2_decap_8
XFILLER_29_119 VPWR VGND sg13g2_decap_8
XFILLER_38_631 VPWR VGND sg13g2_decap_8
XFILLER_1_91 VPWR VGND sg13g2_decap_8
XFILLER_25_325 VPWR VGND sg13g2_decap_8
XFILLER_26_826 VPWR VGND sg13g2_decap_8
XFILLER_38_1009 VPWR VGND sg13g2_decap_8
XFILLER_34_881 VPWR VGND sg13g2_decap_8
XFILLER_40_306 VPWR VGND sg13g2_decap_8
XFILLER_21_542 VPWR VGND sg13g2_decap_8
XFILLER_4_207 VPWR VGND sg13g2_decap_8
XFILLER_1_903 VPWR VGND sg13g2_decap_8
XFILLER_20_67 VPWR VGND sg13g2_decap_8
XFILLER_0_413 VPWR VGND sg13g2_decap_8
XFILLER_48_406 VPWR VGND sg13g2_decap_8
XFILLER_29_21 VPWR VGND sg13g2_decap_8
XFILLER_29_620 VPWR VGND sg13g2_decap_8
XFILLER_29_98 VPWR VGND sg13g2_decap_8
XFILLER_28_130 VPWR VGND sg13g2_decap_8
XFILLER_17_826 VPWR VGND sg13g2_decap_8
XFILLER_29_697 VPWR VGND sg13g2_decap_8
XFILLER_44_656 VPWR VGND sg13g2_decap_8
XFILLER_45_75 VPWR VGND sg13g2_decap_8
XFILLER_43_166 VPWR VGND sg13g2_decap_8
XFILLER_12_564 VPWR VGND sg13g2_decap_8
XFILLER_40_873 VPWR VGND sg13g2_decap_8
XFILLER_8_557 VPWR VGND sg13g2_decap_8
XFILLER_6_25 VPWR VGND sg13g2_decap_8
XFILLER_4_774 VPWR VGND sg13g2_decap_8
XFILLER_3_284 VPWR VGND sg13g2_decap_8
XFILLER_39_417 VPWR VGND sg13g2_decap_8
XFILLER_0_980 VPWR VGND sg13g2_decap_8
XFILLER_48_973 VPWR VGND sg13g2_decap_8
XFILLER_19_130 VPWR VGND sg13g2_decap_8
XFILLER_47_483 VPWR VGND sg13g2_decap_8
XFILLER_35_612 VPWR VGND sg13g2_decap_8
XFILLER_22_306 VPWR VGND sg13g2_decap_8
XFILLER_34_166 VPWR VGND sg13g2_decap_8
XFILLER_35_689 VPWR VGND sg13g2_decap_8
XFILLER_16_881 VPWR VGND sg13g2_decap_8
XFILLER_31_862 VPWR VGND sg13g2_decap_8
XFILLER_30_394 VPWR VGND sg13g2_decap_8
XFILLER_44_1013 VPWR VGND sg13g2_decap_8
Xheichips25_template_34 VPWR VGND uio_oe[1] sg13g2_tiehi
XFILLER_26_623 VPWR VGND sg13g2_decap_8
XFILLER_39_984 VPWR VGND sg13g2_decap_8
XFILLER_14_829 VPWR VGND sg13g2_decap_8
XFILLER_25_144 VPWR VGND sg13g2_decap_8
XFILLER_15_67 VPWR VGND sg13g2_decap_8
XFILLER_40_158 VPWR VGND sg13g2_decap_8
XFILLER_22_884 VPWR VGND sg13g2_decap_8
XFILLER_31_33 VPWR VGND sg13g2_decap_8
Xoutput22 net27 uo_out[2] VPWR VGND sg13g2_buf_1
XFILLER_1_700 VPWR VGND sg13g2_decap_8
XFILLER_0_210 VPWR VGND sg13g2_decap_8
XFILLER_1_777 VPWR VGND sg13g2_decap_8
XFILLER_48_203 VPWR VGND sg13g2_decap_8
XFILLER_0_287 VPWR VGND sg13g2_decap_8
XFILLER_45_943 VPWR VGND sg13g2_decap_8
XFILLER_17_623 VPWR VGND sg13g2_decap_8
XFILLER_29_494 VPWR VGND sg13g2_decap_8
XFILLER_44_453 VPWR VGND sg13g2_decap_8
XFILLER_16_144 VPWR VGND sg13g2_decap_8
XFILLER_31_103 VPWR VGND sg13g2_decap_8
XFILLER_13_851 VPWR VGND sg13g2_decap_8
XFILLER_9_844 VPWR VGND sg13g2_decap_8
XFILLER_12_361 VPWR VGND sg13g2_decap_8
XFILLER_40_670 VPWR VGND sg13g2_decap_8
XFILLER_8_354 VPWR VGND sg13g2_decap_8
XFILLER_4_571 VPWR VGND sg13g2_decap_8
XFILLER_39_214 VPWR VGND sg13g2_decap_8
XFILLER_48_770 VPWR VGND sg13g2_decap_8
XFILLER_36_921 VPWR VGND sg13g2_decap_8
XFILLER_47_280 VPWR VGND sg13g2_decap_8
XFILLER_36_998 VPWR VGND sg13g2_decap_8
XFILLER_23_648 VPWR VGND sg13g2_decap_8
XFILLER_35_486 VPWR VGND sg13g2_decap_8
XFILLER_30_180 VPWR VGND sg13g2_decap_8
XFILLER_11_1012 VPWR VGND sg13g2_decap_8
XFILLER_2_508 VPWR VGND sg13g2_decap_8
XFILLER_46_707 VPWR VGND sg13g2_decap_8
XFILLER_27_910 VPWR VGND sg13g2_decap_8
XFILLER_39_781 VPWR VGND sg13g2_decap_8
XFILLER_26_11 VPWR VGND sg13g2_decap_8
XFILLER_26_420 VPWR VGND sg13g2_decap_8